*** ChampSim Multicore Out-of-Order Simulator ***

Warmup Instructions: 40000000
Simulation Instructions: 100000000
Number of CPUs: 1
Off-chip DRAM Size: 4 GiB Channels: 1 Width: 64-bit Data Rate: 3200 MT/s

VirtualMemory physical capacity: 4293914624 num_ppages: 1048319
VirtualMemory page size: 4096 log2_page_size: 12

CPU 0 runs ../../../trace-gen/pr-twitter-1.trace.xz
CPU 0 Bimodal branch predictor
Basic BTB sets: 1024 ways: 8 indirect buffer size: 4096 RAS size: 64
Heartbeat CPU 0 instructions: 10000004 cycles: 3658884 heartbeat IPC: 2.73307 cumulative IPC: 2.73307 (Simulation time: 0 hr 0 min 32 sec) 
Heartbeat CPU 0 instructions: 20000002 cycles: 7319960 heartbeat IPC: 2.73144 cumulative IPC: 2.73226 (Simulation time: 0 hr 1 min 5 sec) 
Heartbeat CPU 0 instructions: 30000003 cycles: 10974157 heartbeat IPC: 2.73658 cumulative IPC: 2.7337 (Simulation time: 0 hr 1 min 37 sec) 
Heartbeat CPU 0 instructions: 40000003 cycles: 14718622 heartbeat IPC: 2.67061 cumulative IPC: 2.71765 (Simulation time: 0 hr 2 min 11 sec) 

Warmup complete CPU 0 instructions: 40000003 cycles: 14718622 (Simulation time: 0 hr 2 min 11 sec) 

Heartbeat CPU 0 instructions: 50000002 cycles: 247306618 heartbeat IPC: 0.0429945 cumulative IPC: 0.0429945 (Simulation time: 0 hr 13 min 41 sec) 
Heartbeat CPU 0 instructions: 60000003 cycles: 490203068 heartbeat IPC: 0.0411698 cumulative IPC: 0.0420624 (Simulation time: 0 hr 25 min 41 sec) 
Heartbeat CPU 0 instructions: 70000004 cycles: 753414166 heartbeat IPC: 0.0379923 cumulative IPC: 0.0406121 (Simulation time: 0 hr 38 min 44 sec) 
Heartbeat CPU 0 instructions: 80000002 cycles: 1032343296 heartbeat IPC: 0.0358514 cumulative IPC: 0.0393072 (Simulation time: 0 hr 52 min 33 sec) 
Heartbeat CPU 0 instructions: 90000003 cycles: 1288446816 heartbeat IPC: 0.0390467 cumulative IPC: 0.0392548 (Simulation time: 1 hr 5 min 17 sec) 
Heartbeat CPU 0 instructions: 100000000 cycles: 1547189846 heartbeat IPC: 0.0386484 cumulative IPC: 0.0391524 (Simulation time: 1 hr 18 min 4 sec) 
Heartbeat CPU 0 instructions: 110000000 cycles: 1829232210 heartbeat IPC: 0.0354557 cumulative IPC: 0.0385778 (Simulation time: 1 hr 32 min 4 sec) 
Heartbeat CPU 0 instructions: 120000004 cycles: 2098251243 heartbeat IPC: 0.0371721 cumulative IPC: 0.0383963 (Simulation time: 1 hr 45 min 20 sec) 


Heartbeat CPU 0 instructions: 130000000 cycles: 2379184486 heartbeat IPC: 0.0355956 cumulative IPC: 0.0380636 (Simulation time: 1 hr 59 min 11 sec) 
Heartbeat CPU 0 instructions: 140000004 cycles: 2678413076 heartbeat IPC: 0.0334193 cumulative IPC: 0.0375418 (Simulation time: 2 hr 14 min 8 sec) 
Finished CPU 0 instructions: 100000001 cycles: 2663694454 cumulative IPC: 0.0375418 (Simulation time: 2 hr 14 min 8 sec) 

ChampSim completed all CPUs

Region of Interest Statistics

CPU 0 cumulative IPC: 0.0375418 instructions: 100000001 cycles: 2663694454
cpu0_DTLB TOTAL     ACCESS:   36772787  HIT:   21597209  MISS:   15175578
cpu0_DTLB LOAD      ACCESS:   35700983  HIT:   20588513  MISS:   15112470
cpu0_DTLB RFO       ACCESS:    1071804  HIT:    1008696  MISS:      63108
cpu0_DTLB PREFETCH  ACCESS:          0  HIT:          0  MISS:          0
cpu0_DTLB WRITEBACK ACCESS:          0  HIT:          0  MISS:          0
cpu0_DTLB TRANSLATION ACCESS:          0  HIT:          0  MISS:          0
cpu0_DTLB PREFETCH  REQUESTED:          0  ISSUED:          0  USEFUL:          0  USELESS:          0
cpu0_DTLB AVERAGE MISS LATENCY: 14.9652 cycles
cpu0_DTLB MSHR FULL EVENTS: 1149 MSHR MERGE EVENTS: 76787
cpu0_ITLB TOTAL     ACCESS:    3923252  HIT:    3923252  MISS:          0
cpu0_ITLB LOAD      ACCESS:    3923252  HIT:    3923252  MISS:          0
cpu0_ITLB RFO       ACCESS:          0  HIT:          0  MISS:          0
cpu0_ITLB PREFETCH  ACCESS:          0  HIT:          0  MISS:          0
cpu0_ITLB WRITEBACK ACCESS:          0  HIT:          0  MISS:          0
cpu0_ITLB TRANSLATION ACCESS:          0  HIT:          0  MISS:          0
cpu0_ITLB PREFETCH  REQUESTED:          0  ISSUED:          0  USEFUL:          0  USELESS:          0
cpu0_ITLB AVERAGE MISS LATENCY: -nan cycles
cpu0_ITLB MSHR FULL EVENTS: 0 MSHR MERGE EVENTS: 0
cpu0_STLB TOTAL     ACCESS:   15175578  HIT:    3002601  MISS:   12172977
cpu0_STLB LOAD      ACCESS:   15112470  HIT:    2940093  MISS:   12172377
cpu0_STLB RFO       ACCESS:      63108  HIT:      62508  MISS:        600
cpu0_STLB PREFETCH  ACCESS:          0  HIT:          0  MISS:          0
cpu0_STLB WRITEBACK ACCESS:          0  HIT:          0  MISS:          0
cpu0_STLB TRANSLATION ACCESS:          0  HIT:          0  MISS:          0
cpu0_STLB PREFETCH  REQUESTED:          0  ISSUED:          0  USEFUL:          0  USELESS:          0
cpu0_STLB AVERAGE MISS LATENCY: 8.43124 cycles
cpu0_STLB MSHR FULL EVENTS: 0 MSHR MERGE EVENTS: 0
cpu0_L1D TOTAL     ACCESS:   46403526  HIT:   30053784  MISS:   16349742
cpu0_L1D LOAD      ACCESS:   33086067  HIT:   16842547  MISS:   16243520
cpu0_L1D RFO       ACCESS:    1147240  HIT:    1109959  MISS:      37281
cpu0_L1D PREFETCH  ACCESS:          0  HIT:          0  MISS:          0
cpu0_L1D WRITEBACK ACCESS:          0  HIT:          0  MISS:          0
cpu0_L1D TRANSLATION ACCESS:   12170219  HIT:   12101278  MISS:      68941
cpu0_L1D PREFETCH  REQUESTED:          0  ISSUED:          0  USEFUL:          0  USELESS:          0
cpu0_L1D AVERAGE MISS LATENCY: 160.336 cycles
cpu0_L1D MSHR FULL EVENTS: 2520 MSHR MERGE EVENTS: 1607401
cpu0_L2C TOTAL     ACCESS:   16429247  HIT:    2610376  MISS:   13818871
cpu0_L2C LOAD      ACCESS:   16243520  HIT:    2438047  MISS:   13805473
cpu0_L2C RFO       ACCESS:      37281  HIT:      27429  MISS:       9852
cpu0_L2C PREFETCH  ACCESS:          0  HIT:          0  MISS:          0
cpu0_L2C WRITEBACK ACCESS:      79505  HIT:      79505  MISS:          0
cpu0_L2C TRANSLATION ACCESS:      68941  HIT:      65395  MISS:       3546
cpu0_L2C PREFETCH  REQUESTED:          0  ISSUED:          0  USEFUL:          0  USELESS:          0
cpu0_L2C AVERAGE MISS LATENCY: 177.686 cycles
cpu0_L2C MSHR FULL EVENTS: 0 MSHR MERGE EVENTS: 0
LLC TOTAL     ACCESS:   13891641  HIT:     424135  MISS:   13451223
LLC LOAD      ACCESS:   13805474  HIT:     363141  MISS:   13442333
LLC RFO       ACCESS:       9852  HIT:       3395  MISS:       6457
LLC PREFETCH  ACCESS:          0  HIT:          0  MISS:          0
LLC WRITEBACK ACCESS:      72769  HIT:      56486  MISS:      16283
LLC TRANSLATION ACCESS:       3546  HIT:       1113  MISS:       2433
LLC PREFETCH  REQUESTED:          0  ISSUED:          0  USEFUL:          0  USELESS:          0
LLC AVERAGE MISS LATENCY: 161.968 cycles
LLC MSHR FULL EVENTS: 0 MSHR MERGE EVENTS: 0
blocks bypassed = 0
blocks filled to llc = 0
CPU0MSHR FULL: 

DRAM Statistics
 CHANNEL 0
 RQ ROW_BUFFER_HIT:     350902  ROW_BUFFER_MISS:   13100314
 DBUS AVG_CONGESTED_CYCLE:    3.37475
 WQ ROW_BUFFER_HIT:      70818  ROW_BUFFER_MISS:       1971  FULL:          0

Summary: DRAM events
Added_to_RQ : 13451216
Added_to_WQ : 72789
Merged_WQ_READ : 6
 DBUS congested total cycle: 3173890
 DBUS delay total cycle: 2211556410

CPU 0 Branch Prediction Accuracy: 94.9146% MPKI: 9.31527 Average ROB Occupancy at Mispredict: 339.973
Branch type MPKI
BRANCH_DIRECT_JUMP: 0
BRANCH_INDIRECT: 0
BRANCH_CONDITIONAL: 9.31527
BRANCH_DIRECT_CALL: 0
BRANCH_INDIRECT_CALL: 0
BRANCH_RETURN: 0
