
*** ChampSim Multicore Out-of-Order Simulator ***

Warmup Instructions: 40000000
Simulation Instructions: 100000000
Number of CPUs: 1
Off-chip DRAM Size: 4 GiB Channels: 1 Width: 64-bit Data Rate: 3200 MT/s

VirtualMemory physical capacity: 4293914624 num_ppages: 1048319
VirtualMemory page size: 4096 log2_page_size: 12

CPU 0 runs ./pr-twitter-120K-2.trace.xz
CPU 0 Bimodal branch predictor
Basic BTB sets: 1024 ways: 8 indirect buffer size: 4096 RAS size: 64
Heartbeat CPU 0 instructions: 10000001 cycles: 3742763 heartbeat IPC: 2.67182 cumulative IPC: 2.67182 (Simulation time: 0 hr 0 min 34 sec) 
Heartbeat CPU 0 instructions: 20000001 cycles: 7480736 heartbeat IPC: 2.67525 cumulative IPC: 2.67353 (Simulation time: 0 hr 1 min 9 sec) 
Heartbeat CPU 0 instructions: 30000001 cycles: 11177792 heartbeat IPC: 2.70485 cumulative IPC: 2.68389 (Simulation time: 0 hr 1 min 42 sec) 
Heartbeat CPU 0 instructions: 40000002 cycles: 14913677 heartbeat IPC: 2.67674 cumulative IPC: 2.6821 (Simulation time: 0 hr 2 min 17 sec) 

Warmup complete CPU 0 instructions: 40000002 cycles: 14913677 (Simulation time: 0 hr 2 min 17 sec) 

Heartbeat CPU 0 instructions: 50000004 cycles: 274255542 heartbeat IPC: 0.0385591 cumulative IPC: 0.0385591 (Simulation time: 0 hr 15 min 9 sec) 
Heartbeat CPU 0 instructions: 60000001 cycles: 545685103 heartbeat IPC: 0.036842 cumulative IPC: 0.037681 (Simulation time: 0 hr 28 min 39 sec) 
Heartbeat CPU 0 instructions: 70000000 cycles: 818100993 heartbeat IPC: 0.0367086 cumulative IPC: 0.0373512 (Simulation time: 0 hr 42 min 19 sec) 
Heartbeat CPU 0 instructions: 80000000 cycles: 1078745177 heartbeat IPC: 0.0383665 cumulative IPC: 0.0375999 (Simulation time: 0 hr 55 min 19 sec) 
