
*** ChampSim Multicore Out-of-Order Simulator ***

Warmup Instructions: 40000000
Simulation Instructions: 100000000
Number of CPUs: 1
Off-chip DRAM Size: 4 GiB Channels: 1 Width: 64-bit Data Rate: 3200 MT/s

VirtualMemory physical capacity: 4293914624 num_ppages: 1048319
VirtualMemory page size: 4096 log2_page_size: 12

CPU 0 runs ./pr-twitter-120K-3.trace.xz
CPU 0 Bimodal branch predictor
Basic BTB sets: 1024 ways: 8 indirect buffer size: 4096 RAS size: 64
Heartbeat CPU 0 instructions: 10000002 cycles: 3675849 heartbeat IPC: 2.72046 cumulative IPC: 2.72046 (Simulation time: 0 hr 0 min 35 sec) 
Heartbeat CPU 0 instructions: 20000003 cycles: 7348703 heartbeat IPC: 2.72268 cumulative IPC: 2.72157 (Simulation time: 0 hr 1 min 11 sec) 
Heartbeat CPU 0 instructions: 30000002 cycles: 11056646 heartbeat IPC: 2.69691 cumulative IPC: 2.7133 (Simulation time: 0 hr 1 min 46 sec) 
Heartbeat CPU 0 instructions: 40000000 cycles: 14806947 heartbeat IPC: 2.66645 cumulative IPC: 2.70143 (Simulation time: 0 hr 2 min 20 sec) 

Warmup complete CPU 0 instructions: 40000005 cycles: 14806948 (Simulation time: 0 hr 2 min 20 sec) 

Heartbeat CPU 0 instructions: 50000002 cycles: 196014673 heartbeat IPC: 0.0551853 cumulative IPC: 0.0551853 (Simulation time: 0 hr 11 min 43 sec) 
Heartbeat CPU 0 instructions: 60000004 cycles: 370918384 heartbeat IPC: 0.0571743 cumulative IPC: 0.0561622 (Simulation time: 0 hr 20 min 50 sec) 
Heartbeat CPU 0 instructions: 70000003 cycles: 545622714 heartbeat IPC: 0.0572396 cumulative IPC: 0.0565168 (Simulation time: 0 hr 29 min 57 sec) 
Heartbeat CPU 0 instructions: 80000003 cycles: 723131976 heartbeat IPC: 0.0563351 cumulative IPC: 0.0564712 (Simulation time: 0 hr 39 min 9 sec) 
Heartbeat CPU 0 instructions: 90000003 cycles: 939555670 heartbeat IPC: 0.0462057 cumulative IPC: 0.0540687 (Simulation time: 0 hr 50 min 13 sec) 
Heartbeat CPU 0 instructions: 100000003 cycles: 1147260573 heartbeat IPC: 0.0481452 cumulative IPC: 0.0529823 (Simulation time: 1 hr 0 min 48 sec) 
Heartbeat CPU 0 instructions: 110000000 cycles: 1379831124 heartbeat IPC: 0.0429977 cumulative IPC: 0.0512811 (Simulation time: 1 hr 12 min 43 sec) 
Heartbeat CPU 0 instructions: 120000002 cycles: 1587384560 heartbeat IPC: 0.0481804 cumulative IPC: 0.0508719 (Simulation time: 1 hr 23 min 17 sec) 
Heartbeat CPU 0 instructions: 130000000 cycles: 1817876692 heartbeat IPC: 0.0433854 cumulative IPC: 0.0499149 (Simulation time: 1 hr 35 min 1 sec) 
Heartbeat CPU 0 instructions: 140000000 cycles: 2030389923 heartbeat IPC: 0.0470559 cumulative IPC: 0.0496134 (Simulation time: 1 hr 45 min 52 sec) 
Finished CPU 0 instructions: 100000000 cycles: 2015583004 cumulative IPC: 0.0496134 (Simulation time: 1 hr 45 min 52 sec) 

ChampSim completed all CPUs

Region of Interest Statistics

CPU 0 cumulative IPC: 0.0496134 instructions: 100000000 cycles: 2015583004
cpu0_DTLB TOTAL     ACCESS:   36874012  HIT:   25261119  MISS:   11612893
cpu0_DTLB LOAD      ACCESS:   35927150  HIT:   24361302  MISS:   11565848
cpu0_DTLB RFO       ACCESS:     946862  HIT:     899817  MISS:      47045
cpu0_DTLB PREFETCH  ACCESS:          0  HIT:          0  MISS:          0
cpu0_DTLB WRITEBACK ACCESS:          0  HIT:          0  MISS:          0
cpu0_DTLB TRANSLATION ACCESS:          0  HIT:          0  MISS:          0
cpu0_DTLB PREFETCH  REQUESTED:          0  ISSUED:          0  USEFUL:          0  USELESS:          0
cpu0_DTLB AVERAGE MISS LATENCY: 14.7385 cycles
cpu0_DTLB MSHR FULL EVENTS: 0 MSHR MERGE EVENTS: 90102
cpu0_ITLB TOTAL     ACCESS:    3486690  HIT:    3486690  MISS:          0
cpu0_ITLB LOAD      ACCESS:    3486690  HIT:    3486690  MISS:          0
cpu0_ITLB RFO       ACCESS:          0  HIT:          0  MISS:          0
cpu0_ITLB PREFETCH  ACCESS:          0  HIT:          0  MISS:          0
cpu0_ITLB WRITEBACK ACCESS:          0  HIT:          0  MISS:          0
cpu0_ITLB TRANSLATION ACCESS:          0  HIT:          0  MISS:          0
cpu0_ITLB PREFETCH  REQUESTED:          0  ISSUED:          0  USEFUL:          0  USELESS:          0
cpu0_ITLB AVERAGE MISS LATENCY: -nan cycles
cpu0_ITLB MSHR FULL EVENTS: 0 MSHR MERGE EVENTS: 0
cpu0_STLB TOTAL     ACCESS:   11612893  HIT:    2808595  MISS:    8804298
cpu0_STLB LOAD      ACCESS:   11565848  HIT:    2762449  MISS:    8803399
cpu0_STLB RFO       ACCESS:      47045  HIT:      46146  MISS:        899
cpu0_STLB PREFETCH  ACCESS:          0  HIT:          0  MISS:          0
cpu0_STLB WRITEBACK ACCESS:          0  HIT:          0  MISS:          0
cpu0_STLB TRANSLATION ACCESS:          0  HIT:          0  MISS:          0
cpu0_STLB PREFETCH  REQUESTED:          0  ISSUED:          0  USEFUL:          0  USELESS:          0
cpu0_STLB AVERAGE MISS LATENCY: 8.56304 cycles
cpu0_STLB MSHR FULL EVENTS: 0 MSHR MERGE EVENTS: 0
cpu0_L1D TOTAL     ACCESS:   42198844  HIT:   28233040  MISS:   13965804
cpu0_L1D LOAD      ACCESS:   32354220  HIT:   18502474  MISS:   13851746
cpu0_L1D RFO       ACCESS:    1043884  HIT:    1007322  MISS:      36562
cpu0_L1D PREFETCH  ACCESS:          0  HIT:          0  MISS:          0
cpu0_L1D WRITEBACK ACCESS:          0  HIT:          0  MISS:          0
cpu0_L1D TRANSLATION ACCESS:    8800740  HIT:    8723244  MISS:      77496
cpu0_L1D PREFETCH  REQUESTED:          0  ISSUED:          0  USEFUL:          0  USELESS:          0
cpu0_L1D AVERAGE MISS LATENCY: 145.06 cycles
cpu0_L1D MSHR FULL EVENTS: 0 MSHR MERGE EVENTS: 2670247
cpu0_L2C TOTAL     ACCESS:   14041017  HIT:    2269826  MISS:   11771191
cpu0_L2C LOAD      ACCESS:   13851744  HIT:    2100192  MISS:   11751552
cpu0_L2C RFO       ACCESS:      36562  HIT:      18295  MISS:      18267
cpu0_L2C PREFETCH  ACCESS:          0  HIT:          0  MISS:          0
cpu0_L2C WRITEBACK ACCESS:      75215  HIT:      75215  MISS:          0
cpu0_L2C TRANSLATION ACCESS:      77496  HIT:      76124  MISS:       1372
cpu0_L2C PREFETCH  REQUESTED:          0  ISSUED:          0  USEFUL:          0  USELESS:          0
cpu0_L2C AVERAGE MISS LATENCY: 160.053 cycles
cpu0_L2C MSHR FULL EVENTS: 0 MSHR MERGE EVENTS: 0
LLC TOTAL     ACCESS:   13237376  HIT:    1297211  MISS:   10473980
LLC LOAD      ACCESS:   11751551  HIT:    1291623  MISS:   10459928
LLC RFO       ACCESS:      18267  HIT:       4384  MISS:      13883
LLC PREFETCH  ACCESS:          0  HIT:          0  MISS:          0
LLC WRITEBACK ACCESS:    1466186  HIT:          1  MISS:    1466185
LLC TRANSLATION ACCESS:       1372  HIT:       1203  MISS:        169
LLC PREFETCH  REQUESTED:          0  ISSUED:          0  USEFUL:          0  USELESS:          0
LLC AVERAGE MISS LATENCY: 157.274 cycles
LLC MSHR FULL EVENTS: 0 MSHR MERGE EVENTS: 0
blocks bypassed = 14403711
blocks filled to llc = 1956307
CPU0MSHR FULL: 

DRAM Statistics
 CHANNEL 0
 RQ ROW_BUFFER_HIT:     828925  ROW_BUFFER_MISS:    9645055
 DBUS AVG_CONGESTED_CYCLE:    3.52401
 WQ ROW_BUFFER_HIT:      42135  ROW_BUFFER_MISS:       3250  FULL:          0

Summary: DRAM events
Added_to_RQ : 10473980
Added_to_WQ : 45385
 DBUS congested total cycle: 4334345
 DBUS delay total cycle: 1662773491

CPU 0 Branch Prediction Accuracy: 95.5707% MPKI: 8.17221 Average ROB Occupancy at Mispredict: 332.507
Branch type MPKI
BRANCH_DIRECT_JUMP: 0
BRANCH_INDIRECT: 0
BRANCH_CONDITIONAL: 8.17221
BRANCH_DIRECT_CALL: 0
BRANCH_INDIRECT_CALL: 0
BRANCH_RETURN: 0

