
*** ChampSim Multicore Out-of-Order Simulator ***

Warmup Instructions: 40000000
Simulation Instructions: 100000000
Number of CPUs: 1
Off-chip DRAM Size: 4 GiB Channels: 1 Width: 64-bit Data Rate: 3200 MT/s

VirtualMemory physical capacity: 4293914624 num_ppages: 1048319
VirtualMemory page size: 4096 log2_page_size: 12

CPU 0 runs ./pr-twitter-120K-2.trace.xz
CPU 0 Bimodal branch predictor
Basic BTB sets: 1024 ways: 8 indirect buffer size: 4096 RAS size: 64
Heartbeat CPU 0 instructions: 10000001 cycles: 3742763 heartbeat IPC: 2.67182 cumulative IPC: 2.67182 (Simulation time: 0 hr 0 min 34 sec) 
Heartbeat CPU 0 instructions: 20000001 cycles: 7480736 heartbeat IPC: 2.67525 cumulative IPC: 2.67353 (Simulation time: 0 hr 1 min 9 sec) 
Heartbeat CPU 0 instructions: 30000001 cycles: 11177792 heartbeat IPC: 2.70485 cumulative IPC: 2.68389 (Simulation time: 0 hr 1 min 42 sec) 
Heartbeat CPU 0 instructions: 40000002 cycles: 14913677 heartbeat IPC: 2.67674 cumulative IPC: 2.6821 (Simulation time: 0 hr 2 min 17 sec) 

Warmup complete CPU 0 instructions: 40000002 cycles: 14913677 (Simulation time: 0 hr 2 min 17 sec) 

Heartbeat CPU 0 instructions: 50000004 cycles: 274255542 heartbeat IPC: 0.0385591 cumulative IPC: 0.0385591 (Simulation time: 0 hr 15 min 9 sec) 
Heartbeat CPU 0 instructions: 60000001 cycles: 545685103 heartbeat IPC: 0.036842 cumulative IPC: 0.037681 (Simulation time: 0 hr 28 min 39 sec) 
Heartbeat CPU 0 instructions: 70000000 cycles: 818100993 heartbeat IPC: 0.0367086 cumulative IPC: 0.0373512 (Simulation time: 0 hr 42 min 19 sec) 
Heartbeat CPU 0 instructions: 80000000 cycles: 1078745177 heartbeat IPC: 0.0383665 cumulative IPC: 0.0375999 (Simulation time: 0 hr 55 min 19 sec) 
Heartbeat CPU 0 instructions: 90000001 cycles: 1353461011 heartbeat IPC: 0.0364013 cumulative IPC: 0.0373539 (Simulation time: 1 hr 9 min 12 sec) 
Heartbeat CPU 0 instructions: 100000000 cycles: 1618061523 heartbeat IPC: 0.0377928 cumulative IPC: 0.0374264 (Simulation time: 1 hr 22 min 29 sec) 
Heartbeat CPU 0 instructions: 110000003 cycles: 1880687369 heartbeat IPC: 0.038077 cumulative IPC: 0.0375179 (Simulation time: 1 hr 35 min 35 sec) 
Heartbeat CPU 0 instructions: 120000001 cycles: 2127554936 heartbeat IPC: 0.0405075 cumulative IPC: 0.0378673 (Simulation time: 1 hr 47 min 55 sec) 
Heartbeat CPU 0 instructions: 130000001 cycles: 2381338231 heartbeat IPC: 0.0394037 cumulative IPC: 0.0380321 (Simulation time: 2 hr 0 min 34 sec) 
Heartbeat CPU 0 instructions: 140000003 cycles: 2644197685 heartbeat IPC: 0.0380432 cumulative IPC: 0.0380332 (Simulation time: 2 hr 13 min 38 sec) 
Finished CPU 0 instructions: 100000001 cycles: 2629284008 cumulative IPC: 0.0380332 (Simulation time: 2 hr 13 min 38 sec) 

ChampSim completed all CPUs

Region of Interest Statistics

CPU 0 cumulative IPC: 0.0380332 instructions: 100000001 cycles: 2629284008
cpu0_DTLB TOTAL     ACCESS:   36814422  HIT:   20532899  MISS:   16281523
cpu0_DTLB LOAD      ACCESS:   35782421  HIT:   19570789  MISS:   16211632
cpu0_DTLB RFO       ACCESS:    1032001  HIT:     962110  MISS:      69891
cpu0_DTLB PREFETCH  ACCESS:          0  HIT:          0  MISS:          0
cpu0_DTLB WRITEBACK ACCESS:          0  HIT:          0  MISS:          0
cpu0_DTLB TRANSLATION ACCESS:          0  HIT:          0  MISS:          0
cpu0_DTLB PREFETCH  REQUESTED:          0  ISSUED:          0  USEFUL:          0  USELESS:          0
cpu0_DTLB AVERAGE MISS LATENCY: 15.0443 cycles
cpu0_DTLB MSHR FULL EVENTS: 1002 MSHR MERGE EVENTS: 70028
cpu0_ITLB TOTAL     ACCESS:    3701414  HIT:    3701414  MISS:          0
cpu0_ITLB LOAD      ACCESS:    3701414  HIT:    3701414  MISS:          0
cpu0_ITLB RFO       ACCESS:          0  HIT:          0  MISS:          0
cpu0_ITLB PREFETCH  ACCESS:          0  HIT:          0  MISS:          0
cpu0_ITLB WRITEBACK ACCESS:          0  HIT:          0  MISS:          0
cpu0_ITLB TRANSLATION ACCESS:          0  HIT:          0  MISS:          0
cpu0_ITLB PREFETCH  REQUESTED:          0  ISSUED:          0  USEFUL:          0  USELESS:          0
cpu0_ITLB AVERAGE MISS LATENCY: -nan cycles
cpu0_ITLB MSHR FULL EVENTS: 0 MSHR MERGE EVENTS: 0
cpu0_STLB TOTAL     ACCESS:   16281523  HIT:    2941544  MISS:   13339979
cpu0_STLB LOAD      ACCESS:   16211632  HIT:    2873506  MISS:   13338126
cpu0_STLB RFO       ACCESS:      69891  HIT:      68038  MISS:       1853
cpu0_STLB PREFETCH  ACCESS:          0  HIT:          0  MISS:          0
cpu0_STLB WRITEBACK ACCESS:          0  HIT:          0  MISS:          0
cpu0_STLB TRANSLATION ACCESS:          0  HIT:          0  MISS:          0
cpu0_STLB PREFETCH  REQUESTED:          0  ISSUED:          0  USEFUL:          0  USELESS:          0
cpu0_STLB AVERAGE MISS LATENCY: 8.37272 cycles
cpu0_STLB MSHR FULL EVENTS: 0 MSHR MERGE EVENTS: 0
cpu0_L1D TOTAL     ACCESS:   47953428  HIT:   31291358  MISS:   16662070
cpu0_L1D LOAD      ACCESS:   33505703  HIT:   16962335  MISS:   16543368
cpu0_L1D RFO       ACCESS:    1111866  HIT:    1072783  MISS:      39083
cpu0_L1D PREFETCH  ACCESS:          0  HIT:          0  MISS:          0
cpu0_L1D WRITEBACK ACCESS:          0  HIT:          0  MISS:          0
cpu0_L1D TRANSLATION ACCESS:   13335859  HIT:   13256240  MISS:      79619
cpu0_L1D PREFETCH  REQUESTED:          0  ISSUED:          0  USEFUL:          0  USELESS:          0
cpu0_L1D AVERAGE MISS LATENCY: 155.936 cycles
cpu0_L1D MSHR FULL EVENTS: 2036 MSHR MERGE EVENTS: 1321846
cpu0_L2C TOTAL     ACCESS:   16740363  HIT:    2816737  MISS:   13923626
cpu0_L2C LOAD      ACCESS:   16543368  HIT:    2653609  MISS:   13889759
cpu0_L2C RFO       ACCESS:      39083  HIT:       6473  MISS:      32610
cpu0_L2C PREFETCH  ACCESS:          0  HIT:          0  MISS:          0
cpu0_L2C WRITEBACK ACCESS:      78293  HIT:      78293  MISS:          0
cpu0_L2C TRANSLATION ACCESS:      79619  HIT:      78362  MISS:       1257
cpu0_L2C PREFETCH  REQUESTED:          0  ISSUED:          0  USEFUL:          0  USELESS:          0
cpu0_L2C AVERAGE MISS LATENCY: 174.441 cycles
cpu0_L2C MSHR FULL EVENTS: 0 MSHR MERGE EVENTS: 0
LLC TOTAL     ACCESS:   13994890  HIT:     914950  MISS:   13078932
LLC LOAD      ACCESS:   13889759  HIT:     842458  MISS:   13047301
LLC RFO       ACCESS:      32610  HIT:       2132  MISS:      30478
LLC PREFETCH  ACCESS:          0  HIT:          0  MISS:          0
LLC WRITEBACK ACCESS:      71264  HIT:      70256  MISS:       1008
LLC TRANSLATION ACCESS:       1257  HIT:        104  MISS:       1153
LLC PREFETCH  REQUESTED:          0  ISSUED:          0  USEFUL:          0  USELESS:          0
LLC AVERAGE MISS LATENCY: 164.351 cycles
LLC MSHR FULL EVENTS: 0 MSHR MERGE EVENTS: 0
blocks bypassed = 0
blocks filled to llc = 0
CPU0MSHR FULL: 

DRAM Statistics
 CHANNEL 0
 RQ ROW_BUFFER_HIT:      91731  ROW_BUFFER_MISS:   12987198
 DBUS AVG_CONGESTED_CYCLE:    3.41569
 WQ ROW_BUFFER_HIT:      68676  ROW_BUFFER_MISS:       2591  FULL:          0

Summary: DRAM events
Added_to_RQ : 13078930
Added_to_WQ : 71267
Merged_WQ_READ : 3
 DBUS congested total cycle: 3392366
 DBUS delay total cycle: 2169064490

CPU 0 Branch Prediction Accuracy: 95.1473% MPKI: 8.90123 Average ROB Occupancy at Mispredict: 339.003
Branch type MPKI
BRANCH_DIRECT_JUMP: 0
BRANCH_INDIRECT: 0
BRANCH_CONDITIONAL: 8.90123
BRANCH_DIRECT_CALL: 0
BRANCH_INDIRECT_CALL: 0
BRANCH_RETURN: 0

