
*** ChampSim Multicore Out-of-Order Simulator ***

Warmup Instructions: 40000000
Simulation Instructions: 100000000
Number of CPUs: 1
Off-chip DRAM Size: 4 GiB Channels: 1 Width: 64-bit Data Rate: 3200 MT/s

VirtualMemory physical capacity: 4293914624 num_ppages: 1048319
VirtualMemory page size: 4096 log2_page_size: 12

CPU 0 runs ./pr-twitter-120K-2.trace.xz
CPU 0 Bimodal branch predictor
Basic BTB sets: 1024 ways: 8 indirect buffer size: 4096 RAS size: 64
Heartbeat CPU 0 instructions: 10000001 cycles: 3742763 heartbeat IPC: 2.67182 cumulative IPC: 2.67182 (Simulation time: 0 hr 0 min 38 sec) 
Heartbeat CPU 0 instructions: 20000001 cycles: 7480736 heartbeat IPC: 2.67525 cumulative IPC: 2.67353 (Simulation time: 0 hr 1 min 16 sec) 
Heartbeat CPU 0 instructions: 30000001 cycles: 11177792 heartbeat IPC: 2.70485 cumulative IPC: 2.68389 (Simulation time: 0 hr 1 min 52 sec) 
Heartbeat CPU 0 instructions: 40000002 cycles: 14913677 heartbeat IPC: 2.67674 cumulative IPC: 2.6821 (Simulation time: 0 hr 2 min 30 sec) 

Warmup complete CPU 0 instructions: 40000002 cycles: 14913677 (Simulation time: 0 hr 2 min 30 sec) 

Heartbeat CPU 0 instructions: 50000004 cycles: 242094665 heartbeat IPC: 0.0440178 cumulative IPC: 0.0440178 (Simulation time: 0 hr 13 min 58 sec) 
Heartbeat CPU 0 instructions: 60000001 cycles: 480294813 heartbeat IPC: 0.0419815 cumulative IPC: 0.0429755 (Simulation time: 0 hr 25 min 58 sec) 
Heartbeat CPU 0 instructions: 70000000 cycles: 717015941 heartbeat IPC: 0.0422438 cumulative IPC: 0.0427288 (Simulation time: 0 hr 37 min 55 sec) 
Heartbeat CPU 0 instructions: 80000000 cycles: 944371387 heartbeat IPC: 0.043984 cumulative IPC: 0.0430358 (Simulation time: 0 hr 49 min 26 sec) 
