
*** ChampSim Multicore Out-of-Order Simulator ***

Warmup Instructions: 40000000
Simulation Instructions: 100000000
Number of CPUs: 1
Off-chip DRAM Size: 4 GiB Channels: 1 Width: 64-bit Data Rate: 3200 MT/s

VirtualMemory physical capacity: 4293914624 num_ppages: 1048319
VirtualMemory page size: 4096 log2_page_size: 12

CPU 0 runs ./pr-twitter-120K-2.trace.xz
CPU 0 Bimodal branch predictor
Basic BTB sets: 1024 ways: 8 indirect buffer size: 4096 RAS size: 64
Heartbeat CPU 0 instructions: 10000001 cycles: 3748148 heartbeat IPC: 2.66798 cumulative IPC: 2.66798 (Simulation time: 0 hr 0 min 38 sec) 
Heartbeat CPU 0 instructions: 20000001 cycles: 7490239 heartbeat IPC: 2.6723 cumulative IPC: 2.67014 (Simulation time: 0 hr 1 min 15 sec) 
Heartbeat CPU 0 instructions: 30000001 cycles: 11189759 heartbeat IPC: 2.70305 cumulative IPC: 2.68102 (Simulation time: 0 hr 1 min 52 sec) 
Heartbeat CPU 0 instructions: 40000002 cycles: 14927265 heartbeat IPC: 2.67558 cumulative IPC: 2.67966 (Simulation time: 0 hr 2 min 29 sec) 

Warmup complete CPU 0 instructions: 40000002 cycles: 14927265 (Simulation time: 0 hr 2 min 29 sec) 

Heartbeat CPU 0 instructions: 50000004 cycles: 262320517 heartbeat IPC: 0.0404215 cumulative IPC: 0.0404215 (Simulation time: 0 hr 14 min 56 sec) 
Heartbeat CPU 0 instructions: 60000001 cycles: 521171763 heartbeat IPC: 0.0386322 cumulative IPC: 0.0395066 (Simulation time: 0 hr 28 min 1 sec) 
Heartbeat CPU 0 instructions: 70000000 cycles: 780075021 heartbeat IPC: 0.0386245 cumulative IPC: 0.0392081 (Simulation time: 0 hr 41 min 7 sec) 
Heartbeat CPU 0 instructions: 80000000 cycles: 1028064198 heartbeat IPC: 0.0403243 cumulative IPC: 0.0394813 (Simulation time: 0 hr 53 min 33 sec) 
