
*** ChampSim Multicore Out-of-Order Simulator ***

Warmup Instructions: 40000000
Simulation Instructions: 100000000
Number of CPUs: 1
Off-chip DRAM Size: 4 GiB Channels: 1 Width: 64-bit Data Rate: 3200 MT/s

VirtualMemory physical capacity: 4293914624 num_ppages: 1048319
VirtualMemory page size: 4096 log2_page_size: 12

CPU 0 runs ./pr-twitter-120K-3.trace.xz
CPU 0 Bimodal branch predictor
Basic BTB sets: 1024 ways: 8 indirect buffer size: 4096 RAS size: 64
Heartbeat CPU 0 instructions: 10000002 cycles: 3680499 heartbeat IPC: 2.71702 cumulative IPC: 2.71702 (Simulation time: 0 hr 0 min 34 sec) 
Heartbeat CPU 0 instructions: 20000003 cycles: 7357596 heartbeat IPC: 2.71954 cumulative IPC: 2.71828 (Simulation time: 0 hr 1 min 9 sec) 
Heartbeat CPU 0 instructions: 30000002 cycles: 11070537 heartbeat IPC: 2.69328 cumulative IPC: 2.7099 (Simulation time: 0 hr 1 min 45 sec) 
Heartbeat CPU 0 instructions: 40000000 cycles: 14822432 heartbeat IPC: 2.66532 cumulative IPC: 2.69861 (Simulation time: 0 hr 2 min 19 sec) 

Warmup complete CPU 0 instructions: 40000005 cycles: 14822433 (Simulation time: 0 hr 2 min 19 sec) 

Heartbeat CPU 0 instructions: 50000002 cycles: 202899418 heartbeat IPC: 0.0531697 cumulative IPC: 0.0531697 (Simulation time: 0 hr 11 min 57 sec) 
Heartbeat CPU 0 instructions: 60000004 cycles: 385453359 heartbeat IPC: 0.0547783 cumulative IPC: 0.053962 (Simulation time: 0 hr 21 min 18 sec) 
Heartbeat CPU 0 instructions: 70000003 cycles: 567272574 heartbeat IPC: 0.0549997 cumulative IPC: 0.0543035 (Simulation time: 0 hr 30 min 39 sec) 
Heartbeat CPU 0 instructions: 80000003 cycles: 752231198 heartbeat IPC: 0.0540661 cumulative IPC: 0.054244 (Simulation time: 0 hr 40 min 7 sec) 
Heartbeat CPU 0 instructions: 90000001 cycles: 979900174 heartbeat IPC: 0.0439234 cumulative IPC: 0.0518093 (Simulation time: 0 hr 51 min 41 sec) 
Heartbeat CPU 0 instructions: 100000003 cycles: 1199428278 heartbeat IPC: 0.0455523 cumulative IPC: 0.0506498 (Simulation time: 1 hr 2 min 50 sec) 
Heartbeat CPU 0 instructions: 110000000 cycles: 1443416479 heartbeat IPC: 0.0409856 cumulative IPC: 0.0489992 (Simulation time: 1 hr 15 min 14 sec) 
Heartbeat CPU 0 instructions: 120000002 cycles: 1660177167 heartbeat IPC: 0.0461338 cumulative IPC: 0.0486217 (Simulation time: 1 hr 26 min 12 sec) 
Heartbeat CPU 0 instructions: 130000000 cycles: 1901533716 heartbeat IPC: 0.0414325 cumulative IPC: 0.047702 (Simulation time: 1 hr 38 min 26 sec) 
Heartbeat CPU 0 instructions: 140000000 cycles: 2126527044 heartbeat IPC: 0.0444458 cumulative IPC: 0.0473551 (Simulation time: 1 hr 49 min 49 sec) 
Finished CPU 0 instructions: 100000000 cycles: 2111704640 cumulative IPC: 0.0473551 (Simulation time: 1 hr 49 min 49 sec) 

ChampSim completed all CPUs

Region of Interest Statistics

CPU 0 cumulative IPC: 0.0473551 instructions: 100000000 cycles: 2111704640
cpu0_DTLB TOTAL     ACCESS:   36898552  HIT:   25285822  MISS:   11612730
cpu0_DTLB LOAD      ACCESS:   35949404  HIT:   24383463  MISS:   11565941
cpu0_DTLB RFO       ACCESS:     949148  HIT:     902359  MISS:      46789
cpu0_DTLB PREFETCH  ACCESS:          0  HIT:          0  MISS:          0
cpu0_DTLB WRITEBACK ACCESS:          0  HIT:          0  MISS:          0
cpu0_DTLB TRANSLATION ACCESS:          0  HIT:          0  MISS:          0
cpu0_DTLB PREFETCH  REQUESTED:          0  ISSUED:          0  USEFUL:          0  USELESS:          0
cpu0_DTLB AVERAGE MISS LATENCY: 14.7386 cycles
cpu0_DTLB MSHR FULL EVENTS: 0 MSHR MERGE EVENTS: 87406
cpu0_ITLB TOTAL     ACCESS:    3477755  HIT:    3477755  MISS:          0
cpu0_ITLB LOAD      ACCESS:    3477755  HIT:    3477755  MISS:          0
cpu0_ITLB RFO       ACCESS:          0  HIT:          0  MISS:          0
cpu0_ITLB PREFETCH  ACCESS:          0  HIT:          0  MISS:          0
cpu0_ITLB WRITEBACK ACCESS:          0  HIT:          0  MISS:          0
cpu0_ITLB TRANSLATION ACCESS:          0  HIT:          0  MISS:          0
cpu0_ITLB PREFETCH  REQUESTED:          0  ISSUED:          0  USEFUL:          0  USELESS:          0
cpu0_ITLB AVERAGE MISS LATENCY: -nan cycles
cpu0_ITLB MSHR FULL EVENTS: 0 MSHR MERGE EVENTS: 0
cpu0_STLB TOTAL     ACCESS:   11612730  HIT:    2808457  MISS:    8804273
cpu0_STLB LOAD      ACCESS:   11565941  HIT:    2762569  MISS:    8803372
cpu0_STLB RFO       ACCESS:      46789  HIT:      45888  MISS:        901
cpu0_STLB PREFETCH  ACCESS:          0  HIT:          0  MISS:          0
cpu0_STLB WRITEBACK ACCESS:          0  HIT:          0  MISS:          0
cpu0_STLB TRANSLATION ACCESS:          0  HIT:          0  MISS:          0
cpu0_STLB PREFETCH  REQUESTED:          0  ISSUED:          0  USEFUL:          0  USELESS:          0
cpu0_STLB AVERAGE MISS LATENCY: 8.56319 cycles
cpu0_STLB MSHR FULL EVENTS: 0 MSHR MERGE EVENTS: 0
cpu0_L1D TOTAL     ACCESS:   42327865  HIT:   28362051  MISS:   13965814
cpu0_L1D LOAD      ACCESS:   32481130  HIT:   18629370  MISS:   13851760
cpu0_L1D RFO       ACCESS:    1045655  HIT:    1009092  MISS:      36563
cpu0_L1D PREFETCH  ACCESS:          0  HIT:          0  MISS:          0
cpu0_L1D WRITEBACK ACCESS:          0  HIT:          0  MISS:          0
cpu0_L1D TRANSLATION ACCESS:    8801080  HIT:    8723589  MISS:      77491
cpu0_L1D PREFETCH  REQUESTED:          0  ISSUED:          0  USEFUL:          0  USELESS:          0
cpu0_L1D AVERAGE MISS LATENCY: 152.334 cycles
cpu0_L1D MSHR FULL EVENTS: 0 MSHR MERGE EVENTS: 2569553
cpu0_L2C TOTAL     ACCESS:   14041028  HIT:    2269871  MISS:   11771157
cpu0_L2C LOAD      ACCESS:   13851758  HIT:    2100245  MISS:   11751513
cpu0_L2C RFO       ACCESS:      36563  HIT:      18295  MISS:      18268
cpu0_L2C PREFETCH  ACCESS:          0  HIT:          0  MISS:          0
cpu0_L2C WRITEBACK ACCESS:      75216  HIT:      75216  MISS:          0
cpu0_L2C TRANSLATION ACCESS:      77491  HIT:      76115  MISS:       1376
cpu0_L2C PREFETCH  REQUESTED:          0  ISSUED:          0  USEFUL:          0  USELESS:          0
cpu0_L2C AVERAGE MISS LATENCY: 168.683 cycles
cpu0_L2C MSHR FULL EVENTS: 0 MSHR MERGE EVENTS: 0
LLC TOTAL     ACCESS:   23542314  HIT:     680467  MISS:   11090690
LLC LOAD      ACCESS:   11751513  HIT:     670499  MISS:   11081014
LLC RFO       ACCESS:      18268  HIT:       8764  MISS:       9504
LLC PREFETCH  ACCESS:          0  HIT:          0  MISS:          0
LLC WRITEBACK ACCESS:   11771157  HIT:          0  MISS:   11771157
LLC TRANSLATION ACCESS:       1376  HIT:       1204  MISS:        172
LLC PREFETCH  REQUESTED:          0  ISSUED:          0  USEFUL:          0  USELESS:          0
LLC AVERAGE MISS LATENCY: 157.745 cycles
LLC MSHR FULL EVENTS: 0 MSHR MERGE EVENTS: 0
blocks bypassed = 0
blocks filled to llc = 0
CPU0MSHR FULL: 

DRAM Statistics
 CHANNEL 0
 RQ ROW_BUFFER_HIT:     829492  ROW_BUFFER_MISS:   10261197
 DBUS AVG_CONGESTED_CYCLE:    3.52318
 WQ ROW_BUFFER_HIT:      53540  ROW_BUFFER_MISS:       2055  FULL:          0

Summary: DRAM events
Added_to_RQ : 11090689
Added_to_WQ : 55595
Merged_WQ_READ : 1
 DBUS congested total cycle: 4507494
 DBUS delay total cycle: 1777293795

CPU 0 Branch Prediction Accuracy: 95.5707% MPKI: 8.17221 Average ROB Occupancy at Mispredict: 333.318
Branch type MPKI
BRANCH_DIRECT_JUMP: 0
BRANCH_INDIRECT: 0
BRANCH_CONDITIONAL: 8.17221
BRANCH_DIRECT_CALL: 0
BRANCH_INDIRECT_CALL: 0
BRANCH_RETURN: 0

