
*** ChampSim Multicore Out-of-Order Simulator ***

Warmup Instructions: 40000000
Simulation Instructions: 100000000
Number of CPUs: 1
Off-chip DRAM Size: 4 GiB Channels: 1 Width: 64-bit Data Rate: 3200 MT/s

VirtualMemory physical capacity: 4293914624 num_ppages: 1048319
VirtualMemory page size: 4096 log2_page_size: 12

CPU 0 runs ./pr-twitter-120K-3.trace.xz
CPU 0 Bimodal branch predictor
Basic BTB sets: 1024 ways: 8 indirect buffer size: 4096 RAS size: 64
Heartbeat CPU 0 instructions: 10000002 cycles: 3675849 heartbeat IPC: 2.72046 cumulative IPC: 2.72046 (Simulation time: 0 hr 0 min 35 sec) 
Heartbeat CPU 0 instructions: 20000003 cycles: 7348703 heartbeat IPC: 2.72268 cumulative IPC: 2.72157 (Simulation time: 0 hr 1 min 11 sec) 
Heartbeat CPU 0 instructions: 30000002 cycles: 11056646 heartbeat IPC: 2.69691 cumulative IPC: 2.7133 (Simulation time: 0 hr 1 min 46 sec) 
Heartbeat CPU 0 instructions: 40000000 cycles: 14806947 heartbeat IPC: 2.66645 cumulative IPC: 2.70143 (Simulation time: 0 hr 2 min 20 sec) 

Warmup complete CPU 0 instructions: 40000005 cycles: 14806948 (Simulation time: 0 hr 2 min 20 sec) 

Heartbeat CPU 0 instructions: 50000002 cycles: 196014673 heartbeat IPC: 0.0551853 cumulative IPC: 0.0551853 (Simulation time: 0 hr 11 min 43 sec) 
Heartbeat CPU 0 instructions: 60000004 cycles: 370918384 heartbeat IPC: 0.0571743 cumulative IPC: 0.0561622 (Simulation time: 0 hr 20 min 50 sec) 
Heartbeat CPU 0 instructions: 70000003 cycles: 545622714 heartbeat IPC: 0.0572396 cumulative IPC: 0.0565168 (Simulation time: 0 hr 29 min 57 sec) 
Heartbeat CPU 0 instructions: 80000003 cycles: 723131976 heartbeat IPC: 0.0563351 cumulative IPC: 0.0564712 (Simulation time: 0 hr 39 min 9 sec) 
Heartbeat CPU 0 instructions: 90000003 cycles: 939555670 heartbeat IPC: 0.0462057 cumulative IPC: 0.0540687 (Simulation time: 0 hr 50 min 13 sec) 
