
*** ChampSim Multicore Out-of-Order Simulator ***

Warmup Instructions: 40000000
Simulation Instructions: 100000000
Number of CPUs: 1
Off-chip DRAM Size: 4 GiB Channels: 1 Width: 64-bit Data Rate: 3200 MT/s

VirtualMemory physical capacity: 4293914624 num_ppages: 1048319
VirtualMemory page size: 4096 log2_page_size: 12

CPU 0 runs ./pr-twitter-120K-3.trace.xz
CPU 0 Bimodal branch predictor
Basic BTB sets: 1024 ways: 8 indirect buffer size: 4096 RAS size: 64
Heartbeat CPU 0 instructions: 10000002 cycles: 3675849 heartbeat IPC: 2.72046 cumulative IPC: 2.72046 (Simulation time: 0 hr 0 min 32 sec) 
Heartbeat CPU 0 instructions: 20000003 cycles: 7348703 heartbeat IPC: 2.72268 cumulative IPC: 2.72157 (Simulation time: 0 hr 1 min 4 sec) 
Heartbeat CPU 0 instructions: 30000002 cycles: 11056646 heartbeat IPC: 2.69691 cumulative IPC: 2.7133 (Simulation time: 0 hr 1 min 37 sec) 
Heartbeat CPU 0 instructions: 40000000 cycles: 14806947 heartbeat IPC: 2.66645 cumulative IPC: 2.70143 (Simulation time: 0 hr 2 min 8 sec) 

Warmup complete CPU 0 instructions: 40000005 cycles: 14806948 (Simulation time: 0 hr 2 min 8 sec) 

Heartbeat CPU 0 instructions: 50000002 cycles: 206640318 heartbeat IPC: 0.0521286 cumulative IPC: 0.0521286 (Simulation time: 0 hr 12 min 8 sec) 
Heartbeat CPU 0 instructions: 60000004 cycles: 392043684 heartbeat IPC: 0.0539365 cumulative IPC: 0.0530171 (Simulation time: 0 hr 21 min 42 sec) 
Heartbeat CPU 0 instructions: 70000003 cycles: 576493964 heartbeat IPC: 0.0542151 cumulative IPC: 0.0534105 (Simulation time: 0 hr 31 min 8 sec) 
Heartbeat CPU 0 instructions: 80000003 cycles: 764180898 heartbeat IPC: 0.0532802 cumulative IPC: 0.0533779 (Simulation time: 0 hr 40 min 41 sec) 
Heartbeat CPU 0 instructions: 90000001 cycles: 997378942 heartbeat IPC: 0.042882 cumulative IPC: 0.0508869 (Simulation time: 0 hr 52 min 18 sec) 
