
*** ChampSim Multicore Out-of-Order Simulator ***

Warmup Instructions: 40000000
Simulation Instructions: 100000000
Number of CPUs: 1
Off-chip DRAM Size: 4 GiB Channels: 1 Width: 64-bit Data Rate: 3200 MT/s

VirtualMemory physical capacity: 4293914624 num_ppages: 1048319
VirtualMemory page size: 4096 log2_page_size: 12

CPU 0 runs ./pr-twitter-30K-3.trace.xz
CPU 0 Bimodal branch predictor
Basic BTB sets: 1024 ways: 8 indirect buffer size: 4096 RAS size: 64
Heartbeat CPU 0 instructions: 10000000 cycles: 3865759 heartbeat IPC: 2.58681 cumulative IPC: 2.58681 (Simulation time: 0 hr 0 min 35 sec) 
Heartbeat CPU 0 instructions: 20000003 cycles: 7692862 heartbeat IPC: 2.61294 cumulative IPC: 2.59981 (Simulation time: 0 hr 1 min 11 sec) 
Heartbeat CPU 0 instructions: 30000003 cycles: 11434837 heartbeat IPC: 2.67239 cumulative IPC: 2.62356 (Simulation time: 0 hr 1 min 48 sec) 
Heartbeat CPU 0 instructions: 40000000 cycles: 15193576 heartbeat IPC: 2.66047 cumulative IPC: 2.63269 (Simulation time: 0 hr 2 min 23 sec) 

Warmup complete CPU 0 instructions: 40000005 cycles: 15193577 (Simulation time: 0 hr 2 min 23 sec) 

Heartbeat CPU 0 instructions: 50000002 cycles: 252620988 heartbeat IPC: 0.0421181 cumulative IPC: 0.0421181 (Simulation time: 0 hr 14 min 29 sec) 
Heartbeat CPU 0 instructions: 60000003 cycles: 473667383 heartbeat IPC: 0.0452394 cumulative IPC: 0.043623 (Simulation time: 0 hr 25 min 44 sec) 
Heartbeat CPU 0 instructions: 70000004 cycles: 685612879 heartbeat IPC: 0.0471819 cumulative IPC: 0.0447481 (Simulation time: 0 hr 36 min 34 sec) 
Heartbeat CPU 0 instructions: 80000000 cycles: 876249177 heartbeat IPC: 0.0524559 cumulative IPC: 0.0464546 (Simulation time: 0 hr 46 min 23 sec) 
Heartbeat CPU 0 instructions: 90000002 cycles: 1084935769 heartbeat IPC: 0.0479188 cumulative IPC: 0.0467402 (Simulation time: 0 hr 57 min 5 sec) 
Heartbeat CPU 0 instructions: 100000000 cycles: 1345479118 heartbeat IPC: 0.0383813 cumulative IPC: 0.0451031 (Simulation time: 1 hr 10 min 14 sec) 
Heartbeat CPU 0 instructions: 110000002 cycles: 1542523734 heartbeat IPC: 0.0507499 cumulative IPC: 0.0458316 (Simulation time: 1 hr 20 min 6 sec) 
Heartbeat CPU 0 instructions: 120000002 cycles: 1727830302 heartbeat IPC: 0.0539646 cumulative IPC: 0.0467116 (Simulation time: 1 hr 29 min 26 sec) 
Heartbeat CPU 0 instructions: 130000004 cycles: 1954257463 heartbeat IPC: 0.0441643 cumulative IPC: 0.0464141 (Simulation time: 1 hr 40 min 47 sec) 
Heartbeat CPU 0 instructions: 140000002 cycles: 2204807647 heartbeat IPC: 0.0399122 cumulative IPC: 0.0456701 (Simulation time: 1 hr 52 min 43 sec) 
Finished CPU 0 instructions: 100000002 cycles: 2189614074 cumulative IPC: 0.0456701 (Simulation time: 1 hr 52 min 43 sec) 

ChampSim completed all CPUs

Region of Interest Statistics

CPU 0 cumulative IPC: 0.0456701 instructions: 100000002 cycles: 2189614074
cpu0_DTLB TOTAL     ACCESS:   37954412  HIT:   27112531  MISS:   10841881
cpu0_DTLB LOAD      ACCESS:   37284278  HIT:   26488535  MISS:   10795743
cpu0_DTLB RFO       ACCESS:     670134  HIT:     623996  MISS:      46138
cpu0_DTLB PREFETCH  ACCESS:          0  HIT:          0  MISS:          0
cpu0_DTLB WRITEBACK ACCESS:          0  HIT:          0  MISS:          0
cpu0_DTLB TRANSLATION ACCESS:          0  HIT:          0  MISS:          0
cpu0_DTLB PREFETCH  REQUESTED:          0  ISSUED:          0  USEFUL:          0  USELESS:          0
cpu0_DTLB AVERAGE MISS LATENCY: 15.0858 cycles
cpu0_DTLB MSHR FULL EVENTS: 1 MSHR MERGE EVENTS: 77180
cpu0_ITLB TOTAL     ACCESS:    2477662  HIT:    2477662  MISS:          0
cpu0_ITLB LOAD      ACCESS:    2477662  HIT:    2477662  MISS:          0
cpu0_ITLB RFO       ACCESS:          0  HIT:          0  MISS:          0
cpu0_ITLB PREFETCH  ACCESS:          0  HIT:          0  MISS:          0
cpu0_ITLB WRITEBACK ACCESS:          0  HIT:          0  MISS:          0
cpu0_ITLB TRANSLATION ACCESS:          0  HIT:          0  MISS:          0
cpu0_ITLB PREFETCH  REQUESTED:          0  ISSUED:          0  USEFUL:          0  USELESS:          0
cpu0_ITLB AVERAGE MISS LATENCY: -nan cycles
cpu0_ITLB MSHR FULL EVENTS: 0 MSHR MERGE EVENTS: 0
cpu0_STLB TOTAL     ACCESS:   10841881  HIT:    2100177  MISS:    8741704
cpu0_STLB LOAD      ACCESS:   10795743  HIT:    2054557  MISS:    8741186
cpu0_STLB RFO       ACCESS:      46138  HIT:      45620  MISS:        518
cpu0_STLB PREFETCH  ACCESS:          0  HIT:          0  MISS:          0
cpu0_STLB WRITEBACK ACCESS:          0  HIT:          0  MISS:          0
cpu0_STLB TRANSLATION ACCESS:          0  HIT:          0  MISS:          0
cpu0_STLB PREFETCH  REQUESTED:          0  ISSUED:          0  USEFUL:          0  USELESS:          0
cpu0_STLB AVERAGE MISS LATENCY: 8.54129 cycles
cpu0_STLB MSHR FULL EVENTS: 0 MSHR MERGE EVENTS: 0
cpu0_L1D TOTAL     ACCESS:   43321051  HIT:   29530984  MISS:   13790067
cpu0_L1D LOAD      ACCESS:   33865851  HIT:   20161947  MISS:   13703904
cpu0_L1D RFO       ACCESS:     715237  HIT:     690211  MISS:      25026
cpu0_L1D PREFETCH  ACCESS:          0  HIT:          0  MISS:          0
cpu0_L1D WRITEBACK ACCESS:          0  HIT:          0  MISS:          0
cpu0_L1D TRANSLATION ACCESS:    8739963  HIT:    8678826  MISS:      61137
cpu0_L1D PREFETCH  REQUESTED:          0  ISSUED:          0  USEFUL:          0  USELESS:          0
cpu0_L1D AVERAGE MISS LATENCY: 156.109 cycles
cpu0_L1D MSHR FULL EVENTS: 0 MSHR MERGE EVENTS: 2750731
cpu0_L2C TOTAL     ACCESS:   13840714  HIT:    1911831  MISS:   11928883
cpu0_L2C LOAD      ACCESS:   13703904  HIT:    1792509  MISS:   11911395
cpu0_L2C RFO       ACCESS:      25026  HIT:      10153  MISS:      14873
cpu0_L2C PREFETCH  ACCESS:          0  HIT:          0  MISS:          0
cpu0_L2C WRITEBACK ACCESS:      50647  HIT:      50647  MISS:          0
cpu0_L2C TRANSLATION ACCESS:      61137  HIT:      58522  MISS:       2615
cpu0_L2C PREFETCH  REQUESTED:          0  ISSUED:          0  USEFUL:          0  USELESS:          0
cpu0_L2C AVERAGE MISS LATENCY: 168.749 cycles
cpu0_L2C MSHR FULL EVENTS: 0 MSHR MERGE EVENTS: 0
LLC TOTAL     ACCESS:   12948992  HIT:     742172  MISS:   11186712
LLC LOAD      ACCESS:   11911395  HIT:     730268  MISS:   11181127
LLC RFO       ACCESS:      14873  HIT:       9380  MISS:       5493
LLC PREFETCH  ACCESS:          0  HIT:          0  MISS:          0
LLC WRITEBACK ACCESS:    1020109  HIT:          1  MISS:    1020108
LLC TRANSLATION ACCESS:       2615  HIT:       2523  MISS:         92
LLC PREFETCH  REQUESTED:          0  ISSUED:          0  USEFUL:          0  USELESS:          0
LLC AVERAGE MISS LATENCY: 158.551 cycles
LLC MSHR FULL EVENTS: 0 MSHR MERGE EVENTS: 0
blocks bypassed = 15793386
blocks filled to llc = 1346733
CPU0MSHR FULL: 

DRAM Statistics
 CHANNEL 0
 RQ ROW_BUFFER_HIT:     661676  ROW_BUFFER_MISS:   10525034
 DBUS AVG_CONGESTED_CYCLE:    3.46038
 WQ ROW_BUFFER_HIT:      29049  ROW_BUFFER_MISS:       1678  FULL:          0

Summary: DRAM events
Added_to_RQ : 11186710
Added_to_WQ : 30727
Merged_WQ_READ : 2
 DBUS congested total cycle: 3556394
 DBUS delay total cycle: 1768138456

CPU 0 Branch Prediction Accuracy: 96.9738% MPKI: 5.73212 Average ROB Occupancy at Mispredict: 340.66
Branch type MPKI
BRANCH_DIRECT_JUMP: 0
BRANCH_INDIRECT: 0
BRANCH_CONDITIONAL: 5.73212
BRANCH_DIRECT_CALL: 0
BRANCH_INDIRECT_CALL: 0
BRANCH_RETURN: 0

