
*** ChampSim Multicore Out-of-Order Simulator ***

Warmup Instructions: 40000000
Simulation Instructions: 100000000
Number of CPUs: 1
Off-chip DRAM Size: 4 GiB Channels: 1 Width: 64-bit Data Rate: 3200 MT/s

VirtualMemory physical capacity: 4293914624 num_ppages: 1048319
VirtualMemory page size: 4096 log2_page_size: 12

CPU 0 runs ./pr-twitter-30K-2.trace.xz
CPU 0 Bimodal branch predictor
Basic BTB sets: 1024 ways: 8 indirect buffer size: 4096 RAS size: 64
Heartbeat CPU 0 instructions: 10000004 cycles: 3674362 heartbeat IPC: 2.72156 cumulative IPC: 2.72156 (Simulation time: 0 hr 0 min 36 sec) 
Heartbeat CPU 0 instructions: 20000003 cycles: 7330709 heartbeat IPC: 2.73497 cumulative IPC: 2.72825 (Simulation time: 0 hr 1 min 12 sec) 
Heartbeat CPU 0 instructions: 30000000 cycles: 11009338 heartbeat IPC: 2.7184 cumulative IPC: 2.72496 (Simulation time: 0 hr 1 min 48 sec) 
Heartbeat CPU 0 instructions: 40000002 cycles: 14701295 heartbeat IPC: 2.70859 cumulative IPC: 2.72085 (Simulation time: 0 hr 2 min 25 sec) 

Warmup complete CPU 0 instructions: 40000002 cycles: 14701295 (Simulation time: 0 hr 2 min 25 sec) 

Heartbeat CPU 0 instructions: 50000004 cycles: 253410509 heartbeat IPC: 0.041892 cumulative IPC: 0.041892 (Simulation time: 0 hr 14 min 28 sec) 
Heartbeat CPU 0 instructions: 60000003 cycles: 479800501 heartbeat IPC: 0.0441716 cumulative IPC: 0.0430016 (Simulation time: 0 hr 25 min 57 sec) 
Heartbeat CPU 0 instructions: 70000002 cycles: 717027391 heartbeat IPC: 0.0421537 cumulative IPC: 0.0427152 (Simulation time: 0 hr 37 min 54 sec) 
Heartbeat CPU 0 instructions: 80000002 cycles: 946243726 heartbeat IPC: 0.0436269 cumulative IPC: 0.0429395 (Simulation time: 0 hr 49 min 20 sec) 
