
*** ChampSim Multicore Out-of-Order Simulator ***

Warmup Instructions: 40000000
Simulation Instructions: 100000000
Number of CPUs: 1
Off-chip DRAM Size: 4 GiB Channels: 1 Width: 64-bit Data Rate: 3200 MT/s

VirtualMemory physical capacity: 4293914624 num_ppages: 1048319
VirtualMemory page size: 4096 log2_page_size: 12

CPU 0 runs ./pr-twitter-30K-2.trace.xz
CPU 0 Bimodal branch predictor
Basic BTB sets: 1024 ways: 8 indirect buffer size: 4096 RAS size: 64
Heartbeat CPU 0 instructions: 10000004 cycles: 3671720 heartbeat IPC: 2.72352 cumulative IPC: 2.72352 (Simulation time: 0 hr 0 min 34 sec) 
Heartbeat CPU 0 instructions: 20000003 cycles: 7326115 heartbeat IPC: 2.73643 cumulative IPC: 2.72996 (Simulation time: 0 hr 1 min 8 sec) 
Heartbeat CPU 0 instructions: 30000000 cycles: 11001025 heartbeat IPC: 2.72115 cumulative IPC: 2.72702 (Simulation time: 0 hr 1 min 41 sec) 
Heartbeat CPU 0 instructions: 40000002 cycles: 14690584 heartbeat IPC: 2.71035 cumulative IPC: 2.72283 (Simulation time: 0 hr 2 min 15 sec) 

Warmup complete CPU 0 instructions: 40000002 cycles: 14690584 (Simulation time: 0 hr 2 min 15 sec) 

Heartbeat CPU 0 instructions: 50000004 cycles: 262974191 heartbeat IPC: 0.0402765 cumulative IPC: 0.0402765 (Simulation time: 0 hr 14 min 40 sec) 
Heartbeat CPU 0 instructions: 60000003 cycles: 498855851 heartbeat IPC: 0.0423941 cumulative IPC: 0.0413082 (Simulation time: 0 hr 26 min 29 sec) 
Heartbeat CPU 0 instructions: 70000002 cycles: 744650906 heartbeat IPC: 0.0406843 cumulative IPC: 0.0410981 (Simulation time: 0 hr 38 min 47 sec) 
Heartbeat CPU 0 instructions: 80000002 cycles: 983128606 heartbeat IPC: 0.0419326 cumulative IPC: 0.0413036 (Simulation time: 0 hr 50 min 40 sec) 
