
*** ChampSim Multicore Out-of-Order Simulator ***

Warmup Instructions: 40000000
Simulation Instructions: 100000000
Number of CPUs: 1
Off-chip DRAM Size: 4 GiB Channels: 1 Width: 64-bit Data Rate: 3200 MT/s

VirtualMemory physical capacity: 4293914624 num_ppages: 1048319
VirtualMemory page size: 4096 log2_page_size: 12

CPU 0 runs ./pr-twitter-30K-3.trace.xz
CPU 0 Bimodal branch predictor
Basic BTB sets: 1024 ways: 8 indirect buffer size: 4096 RAS size: 64
Heartbeat CPU 0 instructions: 10000000 cycles: 3865759 heartbeat IPC: 2.58681 cumulative IPC: 2.58681 (Simulation time: 0 hr 0 min 35 sec) 
Heartbeat CPU 0 instructions: 20000003 cycles: 7692862 heartbeat IPC: 2.61294 cumulative IPC: 2.59981 (Simulation time: 0 hr 1 min 11 sec) 
Heartbeat CPU 0 instructions: 30000003 cycles: 11434837 heartbeat IPC: 2.67239 cumulative IPC: 2.62356 (Simulation time: 0 hr 1 min 48 sec) 
Heartbeat CPU 0 instructions: 40000000 cycles: 15193576 heartbeat IPC: 2.66047 cumulative IPC: 2.63269 (Simulation time: 0 hr 2 min 23 sec) 

Warmup complete CPU 0 instructions: 40000005 cycles: 15193577 (Simulation time: 0 hr 2 min 23 sec) 

Heartbeat CPU 0 instructions: 50000002 cycles: 252620988 heartbeat IPC: 0.0421181 cumulative IPC: 0.0421181 (Simulation time: 0 hr 14 min 29 sec) 
Heartbeat CPU 0 instructions: 60000003 cycles: 473667383 heartbeat IPC: 0.0452394 cumulative IPC: 0.043623 (Simulation time: 0 hr 25 min 44 sec) 
Heartbeat CPU 0 instructions: 70000004 cycles: 685612879 heartbeat IPC: 0.0471819 cumulative IPC: 0.0447481 (Simulation time: 0 hr 36 min 34 sec) 
Heartbeat CPU 0 instructions: 80000000 cycles: 876249177 heartbeat IPC: 0.0524559 cumulative IPC: 0.0464546 (Simulation time: 0 hr 46 min 23 sec) 
Heartbeat CPU 0 instructions: 90000002 cycles: 1084935769 heartbeat IPC: 0.0479188 cumulative IPC: 0.0467402 (Simulation time: 0 hr 57 min 5 sec) 
