
*** ChampSim Multicore Out-of-Order Simulator ***

Warmup Instructions: 40000000
Simulation Instructions: 100000000
Number of CPUs: 1
Off-chip DRAM Size: 4 GiB Channels: 1 Width: 64-bit Data Rate: 3200 MT/s

VirtualMemory physical capacity: 4293914624 num_ppages: 1048319
VirtualMemory page size: 4096 log2_page_size: 12

CPU 0 runs ./pr-twitter-30K-2.trace.xz
CPU 0 Bimodal branch predictor
Basic BTB sets: 1024 ways: 8 indirect buffer size: 4096 RAS size: 64
Heartbeat CPU 0 instructions: 10000004 cycles: 3671720 heartbeat IPC: 2.72352 cumulative IPC: 2.72352 (Simulation time: 0 hr 0 min 37 sec) 
Heartbeat CPU 0 instructions: 20000003 cycles: 7326115 heartbeat IPC: 2.73643 cumulative IPC: 2.72996 (Simulation time: 0 hr 1 min 13 sec) 
Heartbeat CPU 0 instructions: 30000000 cycles: 11001025 heartbeat IPC: 2.72115 cumulative IPC: 2.72702 (Simulation time: 0 hr 1 min 50 sec) 
Heartbeat CPU 0 instructions: 40000002 cycles: 14690584 heartbeat IPC: 2.71035 cumulative IPC: 2.72283 (Simulation time: 0 hr 2 min 27 sec) 

Warmup complete CPU 0 instructions: 40000002 cycles: 14690584 (Simulation time: 0 hr 2 min 27 sec) 

Heartbeat CPU 0 instructions: 50000004 cycles: 235248839 heartbeat IPC: 0.0453395 cumulative IPC: 0.0453395 (Simulation time: 0 hr 13 min 35 sec) 
Heartbeat CPU 0 instructions: 60000003 cycles: 442672039 heartbeat IPC: 0.0482106 cumulative IPC: 0.046731 (Simulation time: 0 hr 24 min 7 sec) 
Heartbeat CPU 0 instructions: 70000002 cycles: 662843896 heartbeat IPC: 0.0454191 cumulative IPC: 0.0462853 (Simulation time: 0 hr 35 min 17 sec) 
Heartbeat CPU 0 instructions: 80000002 cycles: 877884881 heartbeat IPC: 0.0465028 cumulative IPC: 0.0463395 (Simulation time: 0 hr 46 min 10 sec) 
Heartbeat CPU 0 instructions: 90000000 cycles: 1077863108 heartbeat IPC: 0.0500054 cumulative IPC: 0.0470291 (Simulation time: 0 hr 56 min 18 sec) 
