
*** ChampSim Multicore Out-of-Order Simulator ***

Warmup Instructions: 40000000
Simulation Instructions: 100000000
Number of CPUs: 1
Off-chip DRAM Size: 4 GiB Channels: 1 Width: 64-bit Data Rate: 3200 MT/s

VirtualMemory physical capacity: 4293914624 num_ppages: 1048319
VirtualMemory page size: 4096 log2_page_size: 12

CPU 0 runs ./pr-uk02-513.trace.xz
CPU 0 Bimodal branch predictor
Basic BTB sets: 1024 ways: 8 indirect buffer size: 4096 RAS size: 64
Heartbeat CPU 0 instructions: 10000004 cycles: 3542133 heartbeat IPC: 2.82316 cumulative IPC: 2.82316 (Simulation time: 0 hr 0 min 37 sec) 
Heartbeat CPU 0 instructions: 20000000 cycles: 7083052 heartbeat IPC: 2.82412 cumulative IPC: 2.82364 (Simulation time: 0 hr 1 min 14 sec) 
Heartbeat CPU 0 instructions: 30000000 cycles: 10616122 heartbeat IPC: 2.8304 cumulative IPC: 2.82589 (Simulation time: 0 hr 1 min 51 sec) 
Heartbeat CPU 0 instructions: 40000004 cycles: 14139033 heartbeat IPC: 2.83856 cumulative IPC: 2.82905 (Simulation time: 0 hr 2 min 28 sec) 

Warmup complete CPU 0 instructions: 40000004 cycles: 14139033 (Simulation time: 0 hr 2 min 28 sec) 

Heartbeat CPU 0 instructions: 50000001 cycles: 313542696 heartbeat IPC: 0.0333997 cumulative IPC: 0.0333997 (Simulation time: 0 hr 17 min 25 sec) 
Heartbeat CPU 0 instructions: 60000001 cycles: 613748878 heartbeat IPC: 0.0333104 cumulative IPC: 0.033355 (Simulation time: 0 hr 32 min 27 sec) 
Heartbeat CPU 0 instructions: 70000002 cycles: 919432006 heartbeat IPC: 0.0327136 cumulative IPC: 0.0331384 (Simulation time: 0 hr 47 min 44 sec) 
Heartbeat CPU 0 instructions: 80000003 cycles: 1222887744 heartbeat IPC: 0.0329537 cumulative IPC: 0.0330921 (Simulation time: 1 hr 2 min 54 sec) 
Heartbeat CPU 0 instructions: 90000001 cycles: 1524411246 heartbeat IPC: 0.0331649 cumulative IPC: 0.0331066 (Simulation time: 1 hr 18 min 0 sec) 
Heartbeat CPU 0 instructions: 100000004 cycles: 1823220801 heartbeat IPC: 0.0334661 cumulative IPC: 0.033166 (Simulation time: 1 hr 32 min 51 sec) 
Heartbeat CPU 0 instructions: 110000003 cycles: 2120876998 heartbeat IPC: 0.0335958 cumulative IPC: 0.0332267 (Simulation time: 1 hr 47 min 34 sec) 
Heartbeat CPU 0 instructions: 120000003 cycles: 2419370341 heartbeat IPC: 0.0335016 cumulative IPC: 0.0332608 (Simulation time: 2 hr 2 min 24 sec) 
Heartbeat CPU 0 instructions: 130000001 cycles: 2720507556 heartbeat IPC: 0.0332074 cumulative IPC: 0.0332549 (Simulation time: 2 hr 17 min 25 sec) 
Heartbeat CPU 0 instructions: 140000001 cycles: 3019118418 heartbeat IPC: 0.0334884 cumulative IPC: 0.0332781 (Simulation time: 2 hr 32 min 1 sec) 
Finished CPU 0 instructions: 100000002 cycles: 3004979603 cumulative IPC: 0.0332781 (Simulation time: 2 hr 32 min 1 sec) 

ChampSim completed all CPUs

Region of Interest Statistics

CPU 0 cumulative IPC: 0.0332781 instructions: 100000002 cycles: 3004979603
cpu0_DTLB TOTAL     ACCESS:   35186079  HIT:   20359708  MISS:   14826371
cpu0_DTLB LOAD      ACCESS:   33556538  HIT:   18778797  MISS:   14777741
cpu0_DTLB RFO       ACCESS:    1629541  HIT:    1580911  MISS:      48630
cpu0_DTLB PREFETCH  ACCESS:          0  HIT:          0  MISS:          0
cpu0_DTLB WRITEBACK ACCESS:          0  HIT:          0  MISS:          0
cpu0_DTLB TRANSLATION ACCESS:          0  HIT:          0  MISS:          0
cpu0_DTLB PREFETCH  REQUESTED:          0  ISSUED:          0  USEFUL:          0  USELESS:          0
cpu0_DTLB AVERAGE MISS LATENCY: 15.7975 cycles
cpu0_DTLB MSHR FULL EVENTS: 2463 MSHR MERGE EVENTS: 48645
cpu0_ITLB TOTAL     ACCESS:    4189182  HIT:    4189182  MISS:          0
cpu0_ITLB LOAD      ACCESS:    4189182  HIT:    4189182  MISS:          0
cpu0_ITLB RFO       ACCESS:          0  HIT:          0  MISS:          0
cpu0_ITLB PREFETCH  ACCESS:          0  HIT:          0  MISS:          0
cpu0_ITLB WRITEBACK ACCESS:          0  HIT:          0  MISS:          0
cpu0_ITLB TRANSLATION ACCESS:          0  HIT:          0  MISS:          0
cpu0_ITLB PREFETCH  REQUESTED:          0  ISSUED:          0  USEFUL:          0  USELESS:          0
cpu0_ITLB AVERAGE MISS LATENCY: -nan cycles
cpu0_ITLB MSHR FULL EVENTS: 0 MSHR MERGE EVENTS: 0
cpu0_STLB TOTAL     ACCESS:   14826371  HIT:    1073863  MISS:   13752508
cpu0_STLB LOAD      ACCESS:   14777741  HIT:    1027895  MISS:   13749846
cpu0_STLB RFO       ACCESS:      48630  HIT:      45968  MISS:       2662
cpu0_STLB PREFETCH  ACCESS:          0  HIT:          0  MISS:          0
cpu0_STLB WRITEBACK ACCESS:          0  HIT:          0  MISS:          0
cpu0_STLB TRANSLATION ACCESS:          0  HIT:          0  MISS:          0
cpu0_STLB PREFETCH  REQUESTED:          0  ISSUED:          0  USEFUL:          0  USELESS:          0
cpu0_STLB AVERAGE MISS LATENCY: 8.32369 cycles
cpu0_STLB MSHR FULL EVENTS: 0 MSHR MERGE EVENTS: 0
cpu0_L1D TOTAL     ACCESS:   47525736  HIT:   30910922  MISS:   16614814
cpu0_L1D LOAD      ACCESS:   31955806  HIT:   15444736  MISS:   16511070
cpu0_L1D RFO       ACCESS:    1838862  HIT:    1775353  MISS:      63509
cpu0_L1D PREFETCH  ACCESS:          0  HIT:          0  MISS:          0
cpu0_L1D WRITEBACK ACCESS:          0  HIT:          0  MISS:          0
cpu0_L1D TRANSLATION ACCESS:   13731068  HIT:   13690833  MISS:      40235
cpu0_L1D PREFETCH  REQUESTED:          0  ISSUED:          0  USEFUL:          0  USELESS:          0
cpu0_L1D AVERAGE MISS LATENCY: 189.93 cycles
cpu0_L1D MSHR FULL EVENTS: 3835 MSHR MERGE EVENTS: 575406
cpu0_L2C TOTAL     ACCESS:   16741474  HIT:     399325  MISS:   16342149
cpu0_L2C LOAD      ACCESS:   16511082  HIT:     228391  MISS:   16282691
cpu0_L2C RFO       ACCESS:      63509  HIT:       5140  MISS:      58369
cpu0_L2C PREFETCH  ACCESS:          0  HIT:          0  MISS:          0
cpu0_L2C WRITEBACK ACCESS:     126648  HIT:     126648  MISS:          0
cpu0_L2C TRANSLATION ACCESS:      40235  HIT:      39146  MISS:       1089
cpu0_L2C PREFETCH  REQUESTED:          0  ISSUED:          0  USEFUL:          0  USELESS:          0
cpu0_L2C AVERAGE MISS LATENCY: 182.913 cycles
cpu0_L2C MSHR FULL EVENTS: 0 MSHR MERGE EVENTS: 0
LLC TOTAL     ACCESS:   32684317  HIT:     459347  MISS:   15882791
LLC LOAD      ACCESS:   16282679  HIT:     457018  MISS:   15825661
LLC RFO       ACCESS:      58369  HIT:       1552  MISS:      56817
LLC PREFETCH  ACCESS:          0  HIT:          0  MISS:          0
LLC WRITEBACK ACCESS:   16342180  HIT:          1  MISS:   16342179
LLC TRANSLATION ACCESS:       1089  HIT:        776  MISS:        313
LLC PREFETCH  REQUESTED:          0  ISSUED:          0  USEFUL:          0  USELESS:          0
LLC AVERAGE MISS LATENCY: 167.596 cycles
LLC MSHR FULL EVENTS: 0 MSHR MERGE EVENTS: 0
blocks bypassed = 0
blocks filled to llc = 0
CPU0MSHR FULL: 

DRAM Statistics
 CHANNEL 0
 RQ ROW_BUFFER_HIT:      60752  ROW_BUFFER_MISS:   15821984
 DBUS AVG_CONGESTED_CYCLE:    3.59158
 WQ ROW_BUFFER_HIT:     103661  ROW_BUFFER_MISS:      13041  FULL:          0

Summary: DRAM events
Added_to_RQ : 15882736
Added_to_WQ : 116702
Merged_WQ_READ : 54
 DBUS congested total cycle: 9576730
 DBUS delay total cycle: 25512347550

CPU 0 Branch Prediction Accuracy: 93.7459% MPKI: 10.7363 Average ROB Occupancy at Mispredict: 331.431
Branch type MPKI
BRANCH_DIRECT_JUMP: 0
BRANCH_INDIRECT: 0
BRANCH_CONDITIONAL: 10.7363
BRANCH_DIRECT_CALL: 0
BRANCH_INDIRECT_CALL: 0
BRANCH_RETURN: 0

