
*** ChampSim Multicore Out-of-Order Simulator ***

Warmup Instructions: 40000000
Simulation Instructions: 100000000
Number of CPUs: 1
Off-chip DRAM Size: 4 GiB Channels: 1 Width: 64-bit Data Rate: 3200 MT/s

VirtualMemory physical capacity: 4293914624 num_ppages: 1048319
VirtualMemory page size: 4096 log2_page_size: 12

CPU 0 runs ./pr-uk02-513.trace.xz
CPU 0 Bimodal branch predictor
Basic BTB sets: 1024 ways: 8 indirect buffer size: 4096 RAS size: 64
Heartbeat CPU 0 instructions: 10000004 cycles: 3520529 heartbeat IPC: 2.84048 cumulative IPC: 2.84048 (Simulation time: 0 hr 0 min 37 sec) 
Heartbeat CPU 0 instructions: 20000000 cycles: 7040855 heartbeat IPC: 2.84064 cumulative IPC: 2.84056 (Simulation time: 0 hr 1 min 13 sec) 
Heartbeat CPU 0 instructions: 30000000 cycles: 10554375 heartbeat IPC: 2.84615 cumulative IPC: 2.84242 (Simulation time: 0 hr 1 min 49 sec) 
Heartbeat CPU 0 instructions: 40000004 cycles: 14057863 heartbeat IPC: 2.8543 cumulative IPC: 2.84538 (Simulation time: 0 hr 2 min 25 sec) 

Warmup complete CPU 0 instructions: 40000004 cycles: 14057863 (Simulation time: 0 hr 2 min 25 sec) 

Heartbeat CPU 0 instructions: 50000001 cycles: 310275428 heartbeat IPC: 0.033759 cumulative IPC: 0.033759 (Simulation time: 0 hr 16 min 40 sec) 
Heartbeat CPU 0 instructions: 60000001 cycles: 607332746 heartbeat IPC: 0.0336635 cumulative IPC: 0.0337112 (Simulation time: 0 hr 31 min 12 sec) 
Heartbeat CPU 0 instructions: 70000002 cycles: 908297886 heartbeat IPC: 0.0332264 cumulative IPC: 0.033548 (Simulation time: 0 hr 45 min 55 sec) 
Heartbeat CPU 0 instructions: 80000000 cycles: 1208302803 heartbeat IPC: 0.0333328 cumulative IPC: 0.033494 (Simulation time: 1 hr 0 min 7 sec) 
Heartbeat CPU 0 instructions: 90000001 cycles: 1506718454 heartbeat IPC: 0.0335103 cumulative IPC: 0.0334972 (Simulation time: 1 hr 14 min 29 sec) 
Heartbeat CPU 0 instructions: 100000004 cycles: 1802163638 heartbeat IPC: 0.0338472 cumulative IPC: 0.0335551 (Simulation time: 1 hr 28 min 45 sec) 
Heartbeat CPU 0 instructions: 110000003 cycles: 2096986516 heartbeat IPC: 0.0339187 cumulative IPC: 0.0336065 (Simulation time: 1 hr 42 min 46 sec) 
Heartbeat CPU 0 instructions: 120000003 cycles: 2392575821 heartbeat IPC: 0.0338307 cumulative IPC: 0.0336344 (Simulation time: 1 hr 57 min 11 sec) 
Heartbeat CPU 0 instructions: 130000001 cycles: 2691568586 heartbeat IPC: 0.0334456 cumulative IPC: 0.0336133 (Simulation time: 2 hr 11 min 42 sec) 
Heartbeat CPU 0 instructions: 140000001 cycles: 2987316891 heartbeat IPC: 0.0338125 cumulative IPC: 0.0336331 (Simulation time: 2 hr 26 min 6 sec) 
Finished CPU 0 instructions: 100000002 cycles: 2973259245 cumulative IPC: 0.0336331 (Simulation time: 2 hr 26 min 6 sec) 

ChampSim completed all CPUs

Region of Interest Statistics

CPU 0 cumulative IPC: 0.0336331 instructions: 100000002 cycles: 2973259245
cpu0_DTLB TOTAL     ACCESS:   35191280  HIT:   20364877  MISS:   14826403
cpu0_DTLB LOAD      ACCESS:   33558968  HIT:   18781247  MISS:   14777721
cpu0_DTLB RFO       ACCESS:    1632312  HIT:    1583630  MISS:      48682
cpu0_DTLB PREFETCH  ACCESS:          0  HIT:          0  MISS:          0
cpu0_DTLB WRITEBACK ACCESS:          0  HIT:          0  MISS:          0
cpu0_DTLB TRANSLATION ACCESS:          0  HIT:          0  MISS:          0
cpu0_DTLB PREFETCH  REQUESTED:          0  ISSUED:          0  USEFUL:          0  USELESS:          0
cpu0_DTLB AVERAGE MISS LATENCY: 15.797 cycles
cpu0_DTLB MSHR FULL EVENTS: 2242 MSHR MERGE EVENTS: 48693
cpu0_ITLB TOTAL     ACCESS:    4186877  HIT:    4186877  MISS:          0
cpu0_ITLB LOAD      ACCESS:    4186877  HIT:    4186877  MISS:          0
cpu0_ITLB RFO       ACCESS:          0  HIT:          0  MISS:          0
cpu0_ITLB PREFETCH  ACCESS:          0  HIT:          0  MISS:          0
cpu0_ITLB WRITEBACK ACCESS:          0  HIT:          0  MISS:          0
cpu0_ITLB TRANSLATION ACCESS:          0  HIT:          0  MISS:          0
cpu0_ITLB PREFETCH  REQUESTED:          0  ISSUED:          0  USEFUL:          0  USELESS:          0
cpu0_ITLB AVERAGE MISS LATENCY: -nan cycles
cpu0_ITLB MSHR FULL EVENTS: 0 MSHR MERGE EVENTS: 0
cpu0_STLB TOTAL     ACCESS:   14826403  HIT:    1073868  MISS:   13752535
cpu0_STLB LOAD      ACCESS:   14777721  HIT:    1027847  MISS:   13749874
cpu0_STLB RFO       ACCESS:      48682  HIT:      46021  MISS:       2661
cpu0_STLB PREFETCH  ACCESS:          0  HIT:          0  MISS:          0
cpu0_STLB WRITEBACK ACCESS:          0  HIT:          0  MISS:          0
cpu0_STLB TRANSLATION ACCESS:          0  HIT:          0  MISS:          0
cpu0_STLB PREFETCH  REQUESTED:          0  ISSUED:          0  USEFUL:          0  USELESS:          0
cpu0_STLB AVERAGE MISS LATENCY: 8.3232 cycles
cpu0_STLB MSHR FULL EVENTS: 0 MSHR MERGE EVENTS: 0
cpu0_L1D TOTAL     ACCESS:   47507725  HIT:   30892903  MISS:   16614822
cpu0_L1D LOAD      ACCESS:   31937794  HIT:   15426717  MISS:   16511077
cpu0_L1D RFO       ACCESS:    1838775  HIT:    1775265  MISS:      63510
cpu0_L1D PREFETCH  ACCESS:          0  HIT:          0  MISS:          0
cpu0_L1D WRITEBACK ACCESS:          0  HIT:          0  MISS:          0
cpu0_L1D TRANSLATION ACCESS:   13731156  HIT:   13690921  MISS:      40235
cpu0_L1D PREFETCH  REQUESTED:          0  ISSUED:          0  USEFUL:          0  USELESS:          0
cpu0_L1D AVERAGE MISS LATENCY: 187.547 cycles
cpu0_L1D MSHR FULL EVENTS: 4200 MSHR MERGE EVENTS: 597417
cpu0_L2C TOTAL     ACCESS:   16741472  HIT:     399320  MISS:   16342152
cpu0_L2C LOAD      ACCESS:   16511077  HIT:     228383  MISS:   16282694
cpu0_L2C RFO       ACCESS:      63510  HIT:       5139  MISS:      58371
cpu0_L2C PREFETCH  ACCESS:          0  HIT:          0  MISS:          0
cpu0_L2C WRITEBACK ACCESS:     126650  HIT:     126650  MISS:          0
cpu0_L2C TRANSLATION ACCESS:      40235  HIT:      39148  MISS:       1087
cpu0_L2C PREFETCH  REQUESTED:          0  ISSUED:          0  USEFUL:          0  USELESS:          0
cpu0_L2C AVERAGE MISS LATENCY: 180.49 cycles
cpu0_L2C MSHR FULL EVENTS: 0 MSHR MERGE EVENTS: 0
LLC TOTAL     ACCESS:   17224003  HIT:     671788  MISS:   15670364
LLC LOAD      ACCESS:   16282694  HIT:     669458  MISS:   15613236
LLC RFO       ACCESS:      58371  HIT:       1537  MISS:      56834
LLC PREFETCH  ACCESS:          0  HIT:          0  MISS:          0
LLC WRITEBACK ACCESS:     881851  HIT:          0  MISS:     881851
LLC TRANSLATION ACCESS:       1087  HIT:        793  MISS:        294
LLC PREFETCH  REQUESTED:          0  ISSUED:          0  USEFUL:          0  USELESS:          0
LLC AVERAGE MISS LATENCY: 167.328 cycles
LLC MSHR FULL EVENTS: 0 MSHR MERGE EVENTS: 0
blocks bypassed = 21637684
blocks filled to llc = 1173613
CPU0MSHR FULL: 

DRAM Statistics
 CHANNEL 0
 RQ ROW_BUFFER_HIT:      78210  ROW_BUFFER_MISS:   15592147
 DBUS AVG_CONGESTED_CYCLE:    3.57619
 WQ ROW_BUFFER_HIT:     111606  ROW_BUFFER_MISS:       2084  FULL:          0

Summary: DRAM events
Added_to_RQ : 15670357
Added_to_WQ : 113690
Merged_WQ_READ : 7
 DBUS congested total cycle: 9021719
 DBUS delay total cycle: 4005950137

CPU 0 Branch Prediction Accuracy: 93.7459% MPKI: 10.7363 Average ROB Occupancy at Mispredict: 331.584
Branch type MPKI
BRANCH_DIRECT_JUMP: 0
BRANCH_INDIRECT: 0
BRANCH_CONDITIONAL: 10.7363
BRANCH_DIRECT_CALL: 0
BRANCH_INDIRECT_CALL: 0
BRANCH_RETURN: 0

